/*--------------------------------*- C++ -*----------------------------------*\
| =========                 |                                                 |
| \      /  F ield         | OpenFOAM: The Open Source CFD Toolbox           |
|  \    /   O peration     | Version:  2.1.x                                 |
|   \  /    A nd           | Web:      www.OpenFOAM.org                      |
|    \/     M anipulation  |                                                 |
\*---------------------------------------------------------------------------*/
FoamFile
{
	version		2.0;
	format		ascii;
	class		dictionary;
	object		probesDict;
}
// * * * * * * * * * * * * * * * * * * * * * * * * * * * * * * * * * * * * //


probes
	{
		type probes;
		functionObjectLibs ("libsampling.so");

fields
(
	p
	U
);

outputControl	timeStep;

// Locations to be probed.
probeLocations
(

	( 3.14 0.0 0.0 )
	( 3.14 0.0 0.0576 )
	( 3.14 0.0 0.1152 )
	( 3.14 0.0 0.1728 )
	( 3.14 0.0 0.2304 )
	( 3.14 0.0 0.2880 )
	( 3.14 0.0 0.3456 )
	( 3.14 0.0 0.4033 )
	( 3.14 0.0 0.4609 )
	( 3.14 0.0 0.5185 )
	( 3.14 0.0 0.5761 )
	( 3.14 0.0 0.6337 )
	( 3.14 0.0 0.6913 )
	( 3.14 0.0 0.7489 )
	( 3.14 0.0 0.8066 )
	( 3.14 0.0 0.8642 )
	( 3.14 0.0 0.9218 )
	( 3.14 0.0 0.9794 )
	( 3.14 0.0 1.0370 )
	( 3.14 0.0 1.0946 )
	( 3.14 0.0 1.1522 )
	( 3.14 0.0 1.2099 )
	( 3.14 0.0 1.2675 )
	( 3.14 0.0 1.3251 )
	( 3.14 0.0 1.3827 )
	( 3.14 0.0 1.4403 )
	( 3.14 0.0 1.4979 )
	( 3.14 0.0 1.5555 )
	( 3.14 0.0 1.6132 )
	( 3.14 0.0 1.6708 )
	( 3.14 0.0 1.7284 )
	( 3.14 0.0 1.7860 )
	( 3.14 0.0 1.8436 )
	( 3.14 0.0 1.9012 )
	( 3.14 0.0 1.9588 )
	( 3.14 0.0 2.0165 )
	( 3.14 0.0 2.0741 )
	( 3.14 0.0 2.1317 )
	( 3.14 0.0 2.1893 )
	( 3.14 0.0 2.2469 )
	( 3.14 0.0 2.3045 )
	( 3.14 0.0 2.3622 )
	( 3.14 0.0 2.4198 )
	( 3.14 0.0 2.4774 )
	( 3.14 0.0 2.5350 )
	( 3.14 0.0 2.5926 )
	( 3.14 0.0 2.6502 )
	( 3.14 0.0 2.7078 )
	( 3.14 0.0 2.7655 )
	( 3.14 0.0 2.8231 )
	( 3.14 0.0 2.8807 )
	( 3.14 0.0 2.9383 )
	( 3.14 0.0 2.9959 )
	( 3.14 0.0 3.0535 )
	( 3.14 0.0 3.1111 )
	( 3.14 0.0 3.1688 )
	( 3.14 0.0 3.2264 )
	( 3.14 0.0 3.2840 )
	( 3.14 0.0 3.3416 )
	( 3.14 0.0 3.3992 )
	( 3.14 0.0 3.4568 )
	( 3.14 0.0 3.5144 )
	( 3.14 0.0 3.5721 )
	( 3.14 0.0 3.6297 )
	( 3.14 0.0 3.6873 )
	( 3.14 0.0 3.7449 )
	( 3.14 0.0 3.8025 )
	( 3.14 0.0 3.8601 )
	( 3.14 0.0 3.9177 )
	( 3.14 0.0 3.9754 )
	( 3.14 0.0 4.0330 )
	( 3.14 0.0 4.0906 )
	( 3.14 0.0 4.1482 )
	( 3.14 0.0 4.2058 )
	( 3.14 0.0 4.2634 )
	( 3.14 0.0 4.3211 )
	( 3.14 0.0 4.3787 )
	( 3.14 0.0 4.4363 )
	( 3.14 0.0 4.4939 )
	( 3.14 0.0 4.5515 )
	( 3.14 0.0 4.6091 )
	( 3.14 0.0 4.6667 )
	( 3.14 0.0 4.7244 )
	( 3.14 0.0 4.7820 )
	( 3.14 0.0 4.8396 )
	( 3.14 0.0 4.8972 )
	( 3.14 0.0 4.9548 )
	( 3.14 0.0 5.0124 )
	( 3.14 0.0 5.0700 )
	( 3.14 0.0 5.1277 )
	( 3.14 0.0 5.1853 )
	( 3.14 0.0 5.2429 )
	( 3.14 0.0 5.3005 )
	( 3.14 0.0 5.3581 )
	( 3.14 0.0 5.4157 )
	( 3.14 0.0 5.4733 )
	( 3.14 0.0 5.5310 )
	( 3.14 0.0 5.5886 )
	( 3.14 0.0 5.6462 )
	( 3.14 0.0 5.7038 )
	( 3.14 0.0 5.7614 )
	( 3.14 0.0 5.8190 )
	( 3.14 0.0 5.8766 )
	( 3.14 0.0 5.9343 )
	( 3.14 0.0 5.9919 )
	( 3.14 0.0 6.0495 )
	( 3.14 0.0 6.1071 )
	( 3.14 0.0 6.1647 )
	( 3.14 0.0 6.2223 )
	( 3.14 0.0 6.28 )
	( 3.14 0.0069 0.0 )
	( 3.14 0.0069 0.0576 )
	( 3.14 0.0069 0.1152 )
	( 3.14 0.0069 0.1728 )
	( 3.14 0.0069 0.2304 )
	( 3.14 0.0069 0.2880 )
	( 3.14 0.0069 0.3456 )
	( 3.14 0.0069 0.4033 )
	( 3.14 0.0069 0.4609 )
	( 3.14 0.0069 0.5185 )
	( 3.14 0.0069 0.5761 )
	( 3.14 0.0069 0.6337 )
	( 3.14 0.0069 0.6913 )
	( 3.14 0.0069 0.7489 )
	( 3.14 0.0069 0.8066 )
	( 3.14 0.0069 0.8642 )
	( 3.14 0.0069 0.9218 )
	( 3.14 0.0069 0.9794 )
	( 3.14 0.0069 1.0370 )
	( 3.14 0.0069 1.0946 )
	( 3.14 0.0069 1.1522 )
	( 3.14 0.0069 1.2099 )
	( 3.14 0.0069 1.2675 )
	( 3.14 0.0069 1.3251 )
	( 3.14 0.0069 1.3827 )
	( 3.14 0.0069 1.4403 )
	( 3.14 0.0069 1.4979 )
	( 3.14 0.0069 1.5555 )
	( 3.14 0.0069 1.6132 )
	( 3.14 0.0069 1.6708 )
	( 3.14 0.0069 1.7284 )
	( 3.14 0.0069 1.7860 )
	( 3.14 0.0069 1.8436 )
	( 3.14 0.0069 1.9012 )
	( 3.14 0.0069 1.9588 )
	( 3.14 0.0069 2.0165 )
	( 3.14 0.0069 2.0741 )
	( 3.14 0.0069 2.1317 )
	( 3.14 0.0069 2.1893 )
	( 3.14 0.0069 2.2469 )
	( 3.14 0.0069 2.3045 )
	( 3.14 0.0069 2.3622 )
	( 3.14 0.0069 2.4198 )
	( 3.14 0.0069 2.4774 )
	( 3.14 0.0069 2.5350 )
	( 3.14 0.0069 2.5926 )
	( 3.14 0.0069 2.6502 )
	( 3.14 0.0069 2.7078 )
	( 3.14 0.0069 2.7655 )
	( 3.14 0.0069 2.8231 )
	( 3.14 0.0069 2.8807 )
	( 3.14 0.0069 2.9383 )
	( 3.14 0.0069 2.9959 )
	( 3.14 0.0069 3.0535 )
	( 3.14 0.0069 3.1111 )
	( 3.14 0.0069 3.1688 )
	( 3.14 0.0069 3.2264 )
	( 3.14 0.0069 3.2840 )
	( 3.14 0.0069 3.3416 )
	( 3.14 0.0069 3.3992 )
	( 3.14 0.0069 3.4568 )
	( 3.14 0.0069 3.5144 )
	( 3.14 0.0069 3.5721 )
	( 3.14 0.0069 3.6297 )
	( 3.14 0.0069 3.6873 )
	( 3.14 0.0069 3.7449 )
	( 3.14 0.0069 3.8025 )
	( 3.14 0.0069 3.8601 )
	( 3.14 0.0069 3.9177 )
	( 3.14 0.0069 3.9754 )
	( 3.14 0.0069 4.0330 )
	( 3.14 0.0069 4.0906 )
	( 3.14 0.0069 4.1482 )
	( 3.14 0.0069 4.2058 )
	( 3.14 0.0069 4.2634 )
	( 3.14 0.0069 4.3211 )
	( 3.14 0.0069 4.3787 )
	( 3.14 0.0069 4.4363 )
	( 3.14 0.0069 4.4939 )
	( 3.14 0.0069 4.5515 )
	( 3.14 0.0069 4.6091 )
	( 3.14 0.0069 4.6667 )
	( 3.14 0.0069 4.7244 )
	( 3.14 0.0069 4.7820 )
	( 3.14 0.0069 4.8396 )
	( 3.14 0.0069 4.8972 )
	( 3.14 0.0069 4.9548 )
	( 3.14 0.0069 5.0124 )
	( 3.14 0.0069 5.0700 )
	( 3.14 0.0069 5.1277 )
	( 3.14 0.0069 5.1853 )
	( 3.14 0.0069 5.2429 )
	( 3.14 0.0069 5.3005 )
	( 3.14 0.0069 5.3581 )
	( 3.14 0.0069 5.4157 )
	( 3.14 0.0069 5.4733 )
	( 3.14 0.0069 5.5310 )
	( 3.14 0.0069 5.5886 )
	( 3.14 0.0069 5.6462 )
	( 3.14 0.0069 5.7038 )
	( 3.14 0.0069 5.7614 )
	( 3.14 0.0069 5.8190 )
	( 3.14 0.0069 5.8766 )
	( 3.14 0.0069 5.9343 )
	( 3.14 0.0069 5.9919 )
	( 3.14 0.0069 6.0495 )
	( 3.14 0.0069 6.1071 )
	( 3.14 0.0069 6.1647 )
	( 3.14 0.0069 6.2223 )
	( 3.14 0.0069 6.28 )
	( 3.14 0.0139 0.0 )
	( 3.14 0.0139 0.0576 )
	( 3.14 0.0139 0.1152 )
	( 3.14 0.0139 0.1728 )
	( 3.14 0.0139 0.2304 )
	( 3.14 0.0139 0.2880 )
	( 3.14 0.0139 0.3456 )
	( 3.14 0.0139 0.4033 )
	( 3.14 0.0139 0.4609 )
	( 3.14 0.0139 0.5185 )
	( 3.14 0.0139 0.5761 )
	( 3.14 0.0139 0.6337 )
	( 3.14 0.0139 0.6913 )
	( 3.14 0.0139 0.7489 )
	( 3.14 0.0139 0.8066 )
	( 3.14 0.0139 0.8642 )
	( 3.14 0.0139 0.9218 )
	( 3.14 0.0139 0.9794 )
	( 3.14 0.0139 1.0370 )
	( 3.14 0.0139 1.0946 )
	( 3.14 0.0139 1.1522 )
	( 3.14 0.0139 1.2099 )
	( 3.14 0.0139 1.2675 )
	( 3.14 0.0139 1.3251 )
	( 3.14 0.0139 1.3827 )
	( 3.14 0.0139 1.4403 )
	( 3.14 0.0139 1.4979 )
	( 3.14 0.0139 1.5555 )
	( 3.14 0.0139 1.6132 )
	( 3.14 0.0139 1.6708 )
	( 3.14 0.0139 1.7284 )
	( 3.14 0.0139 1.7860 )
	( 3.14 0.0139 1.8436 )
	( 3.14 0.0139 1.9012 )
	( 3.14 0.0139 1.9588 )
	( 3.14 0.0139 2.0165 )
	( 3.14 0.0139 2.0741 )
	( 3.14 0.0139 2.1317 )
	( 3.14 0.0139 2.1893 )
	( 3.14 0.0139 2.2469 )
	( 3.14 0.0139 2.3045 )
	( 3.14 0.0139 2.3622 )
	( 3.14 0.0139 2.4198 )
	( 3.14 0.0139 2.4774 )
	( 3.14 0.0139 2.5350 )
	( 3.14 0.0139 2.5926 )
	( 3.14 0.0139 2.6502 )
	( 3.14 0.0139 2.7078 )
	( 3.14 0.0139 2.7655 )
	( 3.14 0.0139 2.8231 )
	( 3.14 0.0139 2.8807 )
	( 3.14 0.0139 2.9383 )
	( 3.14 0.0139 2.9959 )
	( 3.14 0.0139 3.0535 )
	( 3.14 0.0139 3.1111 )
	( 3.14 0.0139 3.1688 )
	( 3.14 0.0139 3.2264 )
	( 3.14 0.0139 3.2840 )
	( 3.14 0.0139 3.3416 )
	( 3.14 0.0139 3.3992 )
	( 3.14 0.0139 3.4568 )
	( 3.14 0.0139 3.5144 )
	( 3.14 0.0139 3.5721 )
	( 3.14 0.0139 3.6297 )
	( 3.14 0.0139 3.6873 )
	( 3.14 0.0139 3.7449 )
	( 3.14 0.0139 3.8025 )
	( 3.14 0.0139 3.8601 )
	( 3.14 0.0139 3.9177 )
	( 3.14 0.0139 3.9754 )
	( 3.14 0.0139 4.0330 )
	( 3.14 0.0139 4.0906 )
	( 3.14 0.0139 4.1482 )
	( 3.14 0.0139 4.2058 )
	( 3.14 0.0139 4.2634 )
	( 3.14 0.0139 4.3211 )
	( 3.14 0.0139 4.3787 )
	( 3.14 0.0139 4.4363 )
	( 3.14 0.0139 4.4939 )
	( 3.14 0.0139 4.5515 )
	( 3.14 0.0139 4.6091 )
	( 3.14 0.0139 4.6667 )
	( 3.14 0.0139 4.7244 )
	( 3.14 0.0139 4.7820 )
	( 3.14 0.0139 4.8396 )
	( 3.14 0.0139 4.8972 )
	( 3.14 0.0139 4.9548 )
	( 3.14 0.0139 5.0124 )
	( 3.14 0.0139 5.0700 )
	( 3.14 0.0139 5.1277 )
	( 3.14 0.0139 5.1853 )
	( 3.14 0.0139 5.2429 )
	( 3.14 0.0139 5.3005 )
	( 3.14 0.0139 5.3581 )
	( 3.14 0.0139 5.4157 )
	( 3.14 0.0139 5.4733 )
	( 3.14 0.0139 5.5310 )
	( 3.14 0.0139 5.5886 )
	( 3.14 0.0139 5.6462 )
	( 3.14 0.0139 5.7038 )
	( 3.14 0.0139 5.7614 )
	( 3.14 0.0139 5.8190 )
	( 3.14 0.0139 5.8766 )
	( 3.14 0.0139 5.9343 )
	( 3.14 0.0139 5.9919 )
	( 3.14 0.0139 6.0495 )
	( 3.14 0.0139 6.1071 )
	( 3.14 0.0139 6.1647 )
	( 3.14 0.0139 6.2223 )
	( 3.14 0.0139 6.28 )
	( 3.14 0.0209 0.0 )
	( 3.14 0.0209 0.0576 )
	( 3.14 0.0209 0.1152 )
	( 3.14 0.0209 0.1728 )
	( 3.14 0.0209 0.2304 )
	( 3.14 0.0209 0.2880 )
	( 3.14 0.0209 0.3456 )
	( 3.14 0.0209 0.4033 )
	( 3.14 0.0209 0.4609 )
	( 3.14 0.0209 0.5185 )
	( 3.14 0.0209 0.5761 )
	( 3.14 0.0209 0.6337 )
	( 3.14 0.0209 0.6913 )
	( 3.14 0.0209 0.7489 )
	( 3.14 0.0209 0.8066 )
	( 3.14 0.0209 0.8642 )
	( 3.14 0.0209 0.9218 )
	( 3.14 0.0209 0.9794 )
	( 3.14 0.0209 1.0370 )
	( 3.14 0.0209 1.0946 )
	( 3.14 0.0209 1.1522 )
	( 3.14 0.0209 1.2099 )
	( 3.14 0.0209 1.2675 )
	( 3.14 0.0209 1.3251 )
	( 3.14 0.0209 1.3827 )
	( 3.14 0.0209 1.4403 )
	( 3.14 0.0209 1.4979 )
	( 3.14 0.0209 1.5555 )
	( 3.14 0.0209 1.6132 )
	( 3.14 0.0209 1.6708 )
	( 3.14 0.0209 1.7284 )
	( 3.14 0.0209 1.7860 )
	( 3.14 0.0209 1.8436 )
	( 3.14 0.0209 1.9012 )
	( 3.14 0.0209 1.9588 )
	( 3.14 0.0209 2.0165 )
	( 3.14 0.0209 2.0741 )
	( 3.14 0.0209 2.1317 )
	( 3.14 0.0209 2.1893 )
	( 3.14 0.0209 2.2469 )
	( 3.14 0.0209 2.3045 )
	( 3.14 0.0209 2.3622 )
	( 3.14 0.0209 2.4198 )
	( 3.14 0.0209 2.4774 )
	( 3.14 0.0209 2.5350 )
	( 3.14 0.0209 2.5926 )
	( 3.14 0.0209 2.6502 )
	( 3.14 0.0209 2.7078 )
	( 3.14 0.0209 2.7655 )
	( 3.14 0.0209 2.8231 )
	( 3.14 0.0209 2.8807 )
	( 3.14 0.0209 2.9383 )
	( 3.14 0.0209 2.9959 )
	( 3.14 0.0209 3.0535 )
	( 3.14 0.0209 3.1111 )
	( 3.14 0.0209 3.1688 )
	( 3.14 0.0209 3.2264 )
	( 3.14 0.0209 3.2840 )
	( 3.14 0.0209 3.3416 )
	( 3.14 0.0209 3.3992 )
	( 3.14 0.0209 3.4568 )
	( 3.14 0.0209 3.5144 )
	( 3.14 0.0209 3.5721 )
	( 3.14 0.0209 3.6297 )
	( 3.14 0.0209 3.6873 )
	( 3.14 0.0209 3.7449 )
	( 3.14 0.0209 3.8025 )
	( 3.14 0.0209 3.8601 )
	( 3.14 0.0209 3.9177 )
	( 3.14 0.0209 3.9754 )
	( 3.14 0.0209 4.0330 )
	( 3.14 0.0209 4.0906 )
	( 3.14 0.0209 4.1482 )
	( 3.14 0.0209 4.2058 )
	( 3.14 0.0209 4.2634 )
	( 3.14 0.0209 4.3211 )
	( 3.14 0.0209 4.3787 )
	( 3.14 0.0209 4.4363 )
	( 3.14 0.0209 4.4939 )
	( 3.14 0.0209 4.5515 )
	( 3.14 0.0209 4.6091 )
	( 3.14 0.0209 4.6667 )
	( 3.14 0.0209 4.7244 )
	( 3.14 0.0209 4.7820 )
	( 3.14 0.0209 4.8396 )
	( 3.14 0.0209 4.8972 )
	( 3.14 0.0209 4.9548 )
	( 3.14 0.0209 5.0124 )
	( 3.14 0.0209 5.0700 )
	( 3.14 0.0209 5.1277 )
	( 3.14 0.0209 5.1853 )
	( 3.14 0.0209 5.2429 )
	( 3.14 0.0209 5.3005 )
	( 3.14 0.0209 5.3581 )
	( 3.14 0.0209 5.4157 )
	( 3.14 0.0209 5.4733 )
	( 3.14 0.0209 5.5310 )
	( 3.14 0.0209 5.5886 )
	( 3.14 0.0209 5.6462 )
	( 3.14 0.0209 5.7038 )
	( 3.14 0.0209 5.7614 )
	( 3.14 0.0209 5.8190 )
	( 3.14 0.0209 5.8766 )
	( 3.14 0.0209 5.9343 )
	( 3.14 0.0209 5.9919 )
	( 3.14 0.0209 6.0495 )
	( 3.14 0.0209 6.1071 )
	( 3.14 0.0209 6.1647 )
	( 3.14 0.0209 6.2223 )
	( 3.14 0.0209 6.28 )
	( 3.14 0.0279 0.0 )
	( 3.14 0.0279 0.0576 )
	( 3.14 0.0279 0.1152 )
	( 3.14 0.0279 0.1728 )
	( 3.14 0.0279 0.2304 )
	( 3.14 0.0279 0.2880 )
	( 3.14 0.0279 0.3456 )
	( 3.14 0.0279 0.4033 )
	( 3.14 0.0279 0.4609 )
	( 3.14 0.0279 0.5185 )
	( 3.14 0.0279 0.5761 )
	( 3.14 0.0279 0.6337 )
	( 3.14 0.0279 0.6913 )
	( 3.14 0.0279 0.7489 )
	( 3.14 0.0279 0.8066 )
	( 3.14 0.0279 0.8642 )
	( 3.14 0.0279 0.9218 )
	( 3.14 0.0279 0.9794 )
	( 3.14 0.0279 1.0370 )
	( 3.14 0.0279 1.0946 )
	( 3.14 0.0279 1.1522 )
	( 3.14 0.0279 1.2099 )
	( 3.14 0.0279 1.2675 )
	( 3.14 0.0279 1.3251 )
	( 3.14 0.0279 1.3827 )
	( 3.14 0.0279 1.4403 )
	( 3.14 0.0279 1.4979 )
	( 3.14 0.0279 1.5555 )
	( 3.14 0.0279 1.6132 )
	( 3.14 0.0279 1.6708 )
	( 3.14 0.0279 1.7284 )
	( 3.14 0.0279 1.7860 )
	( 3.14 0.0279 1.8436 )
	( 3.14 0.0279 1.9012 )
	( 3.14 0.0279 1.9588 )
	( 3.14 0.0279 2.0165 )
	( 3.14 0.0279 2.0741 )
	( 3.14 0.0279 2.1317 )
	( 3.14 0.0279 2.1893 )
	( 3.14 0.0279 2.2469 )
	( 3.14 0.0279 2.3045 )
	( 3.14 0.0279 2.3622 )
	( 3.14 0.0279 2.4198 )
	( 3.14 0.0279 2.4774 )
	( 3.14 0.0279 2.5350 )
	( 3.14 0.0279 2.5926 )
	( 3.14 0.0279 2.6502 )
	( 3.14 0.0279 2.7078 )
	( 3.14 0.0279 2.7655 )
	( 3.14 0.0279 2.8231 )
	( 3.14 0.0279 2.8807 )
	( 3.14 0.0279 2.9383 )
	( 3.14 0.0279 2.9959 )
	( 3.14 0.0279 3.0535 )
	( 3.14 0.0279 3.1111 )
	( 3.14 0.0279 3.1688 )
	( 3.14 0.0279 3.2264 )
	( 3.14 0.0279 3.2840 )
	( 3.14 0.0279 3.3416 )
	( 3.14 0.0279 3.3992 )
	( 3.14 0.0279 3.4568 )
	( 3.14 0.0279 3.5144 )
	( 3.14 0.0279 3.5721 )
	( 3.14 0.0279 3.6297 )
	( 3.14 0.0279 3.6873 )
	( 3.14 0.0279 3.7449 )
	( 3.14 0.0279 3.8025 )
	( 3.14 0.0279 3.8601 )
	( 3.14 0.0279 3.9177 )
	( 3.14 0.0279 3.9754 )
	( 3.14 0.0279 4.0330 )
	( 3.14 0.0279 4.0906 )
	( 3.14 0.0279 4.1482 )
	( 3.14 0.0279 4.2058 )
	( 3.14 0.0279 4.2634 )
	( 3.14 0.0279 4.3211 )
	( 3.14 0.0279 4.3787 )
	( 3.14 0.0279 4.4363 )
	( 3.14 0.0279 4.4939 )
	( 3.14 0.0279 4.5515 )
	( 3.14 0.0279 4.6091 )
	( 3.14 0.0279 4.6667 )
	( 3.14 0.0279 4.7244 )
	( 3.14 0.0279 4.7820 )
	( 3.14 0.0279 4.8396 )
	( 3.14 0.0279 4.8972 )
	( 3.14 0.0279 4.9548 )
	( 3.14 0.0279 5.0124 )
	( 3.14 0.0279 5.0700 )
	( 3.14 0.0279 5.1277 )
	( 3.14 0.0279 5.1853 )
	( 3.14 0.0279 5.2429 )
	( 3.14 0.0279 5.3005 )
	( 3.14 0.0279 5.3581 )
	( 3.14 0.0279 5.4157 )
	( 3.14 0.0279 5.4733 )
	( 3.14 0.0279 5.5310 )
	( 3.14 0.0279 5.5886 )
	( 3.14 0.0279 5.6462 )
	( 3.14 0.0279 5.7038 )
	( 3.14 0.0279 5.7614 )
	( 3.14 0.0279 5.8190 )
	( 3.14 0.0279 5.8766 )
	( 3.14 0.0279 5.9343 )
	( 3.14 0.0279 5.9919 )
	( 3.14 0.0279 6.0495 )
	( 3.14 0.0279 6.1071 )
	( 3.14 0.0279 6.1647 )
	( 3.14 0.0279 6.2223 )
	( 3.14 0.0279 6.28 )
	( 3.14 0.0349 0.0 )
	( 3.14 0.0349 0.0576 )
	( 3.14 0.0349 0.1152 )
	( 3.14 0.0349 0.1728 )
	( 3.14 0.0349 0.2304 )
	( 3.14 0.0349 0.2880 )
	( 3.14 0.0349 0.3456 )
	( 3.14 0.0349 0.4033 )
	( 3.14 0.0349 0.4609 )
	( 3.14 0.0349 0.5185 )
	( 3.14 0.0349 0.5761 )
	( 3.14 0.0349 0.6337 )
	( 3.14 0.0349 0.6913 )
	( 3.14 0.0349 0.7489 )
	( 3.14 0.0349 0.8066 )
	( 3.14 0.0349 0.8642 )
	( 3.14 0.0349 0.9218 )
	( 3.14 0.0349 0.9794 )
	( 3.14 0.0349 1.0370 )
	( 3.14 0.0349 1.0946 )
	( 3.14 0.0349 1.1522 )
	( 3.14 0.0349 1.2099 )
	( 3.14 0.0349 1.2675 )
	( 3.14 0.0349 1.3251 )
	( 3.14 0.0349 1.3827 )
	( 3.14 0.0349 1.4403 )
	( 3.14 0.0349 1.4979 )
	( 3.14 0.0349 1.5555 )
	( 3.14 0.0349 1.6132 )
	( 3.14 0.0349 1.6708 )
	( 3.14 0.0349 1.7284 )
	( 3.14 0.0349 1.7860 )
	( 3.14 0.0349 1.8436 )
	( 3.14 0.0349 1.9012 )
	( 3.14 0.0349 1.9588 )
	( 3.14 0.0349 2.0165 )
	( 3.14 0.0349 2.0741 )
	( 3.14 0.0349 2.1317 )
	( 3.14 0.0349 2.1893 )
	( 3.14 0.0349 2.2469 )
	( 3.14 0.0349 2.3045 )
	( 3.14 0.0349 2.3622 )
	( 3.14 0.0349 2.4198 )
	( 3.14 0.0349 2.4774 )
	( 3.14 0.0349 2.5350 )
	( 3.14 0.0349 2.5926 )
	( 3.14 0.0349 2.6502 )
	( 3.14 0.0349 2.7078 )
	( 3.14 0.0349 2.7655 )
	( 3.14 0.0349 2.8231 )
	( 3.14 0.0349 2.8807 )
	( 3.14 0.0349 2.9383 )
	( 3.14 0.0349 2.9959 )
	( 3.14 0.0349 3.0535 )
	( 3.14 0.0349 3.1111 )
	( 3.14 0.0349 3.1688 )
	( 3.14 0.0349 3.2264 )
	( 3.14 0.0349 3.2840 )
	( 3.14 0.0349 3.3416 )
	( 3.14 0.0349 3.3992 )
	( 3.14 0.0349 3.4568 )
	( 3.14 0.0349 3.5144 )
	( 3.14 0.0349 3.5721 )
	( 3.14 0.0349 3.6297 )
	( 3.14 0.0349 3.6873 )
	( 3.14 0.0349 3.7449 )
	( 3.14 0.0349 3.8025 )
	( 3.14 0.0349 3.8601 )
	( 3.14 0.0349 3.9177 )
	( 3.14 0.0349 3.9754 )
	( 3.14 0.0349 4.0330 )
	( 3.14 0.0349 4.0906 )
	( 3.14 0.0349 4.1482 )
	( 3.14 0.0349 4.2058 )
	( 3.14 0.0349 4.2634 )
	( 3.14 0.0349 4.3211 )
	( 3.14 0.0349 4.3787 )
	( 3.14 0.0349 4.4363 )
	( 3.14 0.0349 4.4939 )
	( 3.14 0.0349 4.5515 )
	( 3.14 0.0349 4.6091 )
	( 3.14 0.0349 4.6667 )
	( 3.14 0.0349 4.7244 )
	( 3.14 0.0349 4.7820 )
	( 3.14 0.0349 4.8396 )
	( 3.14 0.0349 4.8972 )
	( 3.14 0.0349 4.9548 )
	( 3.14 0.0349 5.0124 )
	( 3.14 0.0349 5.0700 )
	( 3.14 0.0349 5.1277 )
	( 3.14 0.0349 5.1853 )
	( 3.14 0.0349 5.2429 )
	( 3.14 0.0349 5.3005 )
	( 3.14 0.0349 5.3581 )
	( 3.14 0.0349 5.4157 )
	( 3.14 0.0349 5.4733 )
	( 3.14 0.0349 5.5310 )
	( 3.14 0.0349 5.5886 )
	( 3.14 0.0349 5.6462 )
	( 3.14 0.0349 5.7038 )
	( 3.14 0.0349 5.7614 )
	( 3.14 0.0349 5.8190 )
	( 3.14 0.0349 5.8766 )
	( 3.14 0.0349 5.9343 )
	( 3.14 0.0349 5.9919 )
	( 3.14 0.0349 6.0495 )
	( 3.14 0.0349 6.1071 )
	( 3.14 0.0349 6.1647 )
	( 3.14 0.0349 6.2223 )
	( 3.14 0.0349 6.28 )
	( 3.14 0.0419 0.0 )
	( 3.14 0.0419 0.0576 )
	( 3.14 0.0419 0.1152 )
	( 3.14 0.0419 0.1728 )
	( 3.14 0.0419 0.2304 )
	( 3.14 0.0419 0.2880 )
	( 3.14 0.0419 0.3456 )
	( 3.14 0.0419 0.4033 )
	( 3.14 0.0419 0.4609 )
	( 3.14 0.0419 0.5185 )
	( 3.14 0.0419 0.5761 )
	( 3.14 0.0419 0.6337 )
	( 3.14 0.0419 0.6913 )
	( 3.14 0.0419 0.7489 )
	( 3.14 0.0419 0.8066 )
	( 3.14 0.0419 0.8642 )
	( 3.14 0.0419 0.9218 )
	( 3.14 0.0419 0.9794 )
	( 3.14 0.0419 1.0370 )
	( 3.14 0.0419 1.0946 )
	( 3.14 0.0419 1.1522 )
	( 3.14 0.0419 1.2099 )
	( 3.14 0.0419 1.2675 )
	( 3.14 0.0419 1.3251 )
	( 3.14 0.0419 1.3827 )
	( 3.14 0.0419 1.4403 )
	( 3.14 0.0419 1.4979 )
	( 3.14 0.0419 1.5555 )
	( 3.14 0.0419 1.6132 )
	( 3.14 0.0419 1.6708 )
	( 3.14 0.0419 1.7284 )
	( 3.14 0.0419 1.7860 )
	( 3.14 0.0419 1.8436 )
	( 3.14 0.0419 1.9012 )
	( 3.14 0.0419 1.9588 )
	( 3.14 0.0419 2.0165 )
	( 3.14 0.0419 2.0741 )
	( 3.14 0.0419 2.1317 )
	( 3.14 0.0419 2.1893 )
	( 3.14 0.0419 2.2469 )
	( 3.14 0.0419 2.3045 )
	( 3.14 0.0419 2.3622 )
	( 3.14 0.0419 2.4198 )
	( 3.14 0.0419 2.4774 )
	( 3.14 0.0419 2.5350 )
	( 3.14 0.0419 2.5926 )
	( 3.14 0.0419 2.6502 )
	( 3.14 0.0419 2.7078 )
	( 3.14 0.0419 2.7655 )
	( 3.14 0.0419 2.8231 )
	( 3.14 0.0419 2.8807 )
	( 3.14 0.0419 2.9383 )
	( 3.14 0.0419 2.9959 )
	( 3.14 0.0419 3.0535 )
	( 3.14 0.0419 3.1111 )
	( 3.14 0.0419 3.1688 )
	( 3.14 0.0419 3.2264 )
	( 3.14 0.0419 3.2840 )
	( 3.14 0.0419 3.3416 )
	( 3.14 0.0419 3.3992 )
	( 3.14 0.0419 3.4568 )
	( 3.14 0.0419 3.5144 )
	( 3.14 0.0419 3.5721 )
	( 3.14 0.0419 3.6297 )
	( 3.14 0.0419 3.6873 )
	( 3.14 0.0419 3.7449 )
	( 3.14 0.0419 3.8025 )
	( 3.14 0.0419 3.8601 )
	( 3.14 0.0419 3.9177 )
	( 3.14 0.0419 3.9754 )
	( 3.14 0.0419 4.0330 )
	( 3.14 0.0419 4.0906 )
	( 3.14 0.0419 4.1482 )
	( 3.14 0.0419 4.2058 )
	( 3.14 0.0419 4.2634 )
	( 3.14 0.0419 4.3211 )
	( 3.14 0.0419 4.3787 )
	( 3.14 0.0419 4.4363 )
	( 3.14 0.0419 4.4939 )
	( 3.14 0.0419 4.5515 )
	( 3.14 0.0419 4.6091 )
	( 3.14 0.0419 4.6667 )
	( 3.14 0.0419 4.7244 )
	( 3.14 0.0419 4.7820 )
	( 3.14 0.0419 4.8396 )
	( 3.14 0.0419 4.8972 )
	( 3.14 0.0419 4.9548 )
	( 3.14 0.0419 5.0124 )
	( 3.14 0.0419 5.0700 )
	( 3.14 0.0419 5.1277 )
	( 3.14 0.0419 5.1853 )
	( 3.14 0.0419 5.2429 )
	( 3.14 0.0419 5.3005 )
	( 3.14 0.0419 5.3581 )
	( 3.14 0.0419 5.4157 )
	( 3.14 0.0419 5.4733 )
	( 3.14 0.0419 5.5310 )
	( 3.14 0.0419 5.5886 )
	( 3.14 0.0419 5.6462 )
	( 3.14 0.0419 5.7038 )
	( 3.14 0.0419 5.7614 )
	( 3.14 0.0419 5.8190 )
	( 3.14 0.0419 5.8766 )
	( 3.14 0.0419 5.9343 )
	( 3.14 0.0419 5.9919 )
	( 3.14 0.0419 6.0495 )
	( 3.14 0.0419 6.1071 )
	( 3.14 0.0419 6.1647 )
	( 3.14 0.0419 6.2223 )
	( 3.14 0.0419 6.28 )
	( 3.14 0.0489 0.0 )
	( 3.14 0.0489 0.0576 )
	( 3.14 0.0489 0.1152 )
	( 3.14 0.0489 0.1728 )
	( 3.14 0.0489 0.2304 )
	( 3.14 0.0489 0.2880 )
	( 3.14 0.0489 0.3456 )
	( 3.14 0.0489 0.4033 )
	( 3.14 0.0489 0.4609 )
	( 3.14 0.0489 0.5185 )
	( 3.14 0.0489 0.5761 )
	( 3.14 0.0489 0.6337 )
	( 3.14 0.0489 0.6913 )
	( 3.14 0.0489 0.7489 )
	( 3.14 0.0489 0.8066 )
	( 3.14 0.0489 0.8642 )
	( 3.14 0.0489 0.9218 )
	( 3.14 0.0489 0.9794 )
	( 3.14 0.0489 1.0370 )
	( 3.14 0.0489 1.0946 )
	( 3.14 0.0489 1.1522 )
	( 3.14 0.0489 1.2099 )
	( 3.14 0.0489 1.2675 )
	( 3.14 0.0489 1.3251 )
	( 3.14 0.0489 1.3827 )
	( 3.14 0.0489 1.4403 )
	( 3.14 0.0489 1.4979 )
	( 3.14 0.0489 1.5555 )
	( 3.14 0.0489 1.6132 )
	( 3.14 0.0489 1.6708 )
	( 3.14 0.0489 1.7284 )
	( 3.14 0.0489 1.7860 )
	( 3.14 0.0489 1.8436 )
	( 3.14 0.0489 1.9012 )
	( 3.14 0.0489 1.9588 )
	( 3.14 0.0489 2.0165 )
	( 3.14 0.0489 2.0741 )
	( 3.14 0.0489 2.1317 )
	( 3.14 0.0489 2.1893 )
	( 3.14 0.0489 2.2469 )
	( 3.14 0.0489 2.3045 )
	( 3.14 0.0489 2.3622 )
	( 3.14 0.0489 2.4198 )
	( 3.14 0.0489 2.4774 )
	( 3.14 0.0489 2.5350 )
	( 3.14 0.0489 2.5926 )
	( 3.14 0.0489 2.6502 )
	( 3.14 0.0489 2.7078 )
	( 3.14 0.0489 2.7655 )
	( 3.14 0.0489 2.8231 )
	( 3.14 0.0489 2.8807 )
	( 3.14 0.0489 2.9383 )
	( 3.14 0.0489 2.9959 )
	( 3.14 0.0489 3.0535 )
	( 3.14 0.0489 3.1111 )
	( 3.14 0.0489 3.1688 )
	( 3.14 0.0489 3.2264 )
	( 3.14 0.0489 3.2840 )
	( 3.14 0.0489 3.3416 )
	( 3.14 0.0489 3.3992 )
	( 3.14 0.0489 3.4568 )
	( 3.14 0.0489 3.5144 )
	( 3.14 0.0489 3.5721 )
	( 3.14 0.0489 3.6297 )
	( 3.14 0.0489 3.6873 )
	( 3.14 0.0489 3.7449 )
	( 3.14 0.0489 3.8025 )
	( 3.14 0.0489 3.8601 )
	( 3.14 0.0489 3.9177 )
	( 3.14 0.0489 3.9754 )
	( 3.14 0.0489 4.0330 )
	( 3.14 0.0489 4.0906 )
	( 3.14 0.0489 4.1482 )
	( 3.14 0.0489 4.2058 )
	( 3.14 0.0489 4.2634 )
	( 3.14 0.0489 4.3211 )
	( 3.14 0.0489 4.3787 )
	( 3.14 0.0489 4.4363 )
	( 3.14 0.0489 4.4939 )
	( 3.14 0.0489 4.5515 )
	( 3.14 0.0489 4.6091 )
	( 3.14 0.0489 4.6667 )
	( 3.14 0.0489 4.7244 )
	( 3.14 0.0489 4.7820 )
	( 3.14 0.0489 4.8396 )
	( 3.14 0.0489 4.8972 )
	( 3.14 0.0489 4.9548 )
	( 3.14 0.0489 5.0124 )
	( 3.14 0.0489 5.0700 )
	( 3.14 0.0489 5.1277 )
	( 3.14 0.0489 5.1853 )
	( 3.14 0.0489 5.2429 )
	( 3.14 0.0489 5.3005 )
	( 3.14 0.0489 5.3581 )
	( 3.14 0.0489 5.4157 )
	( 3.14 0.0489 5.4733 )
	( 3.14 0.0489 5.5310 )
	( 3.14 0.0489 5.5886 )
	( 3.14 0.0489 5.6462 )
	( 3.14 0.0489 5.7038 )
	( 3.14 0.0489 5.7614 )
	( 3.14 0.0489 5.8190 )
	( 3.14 0.0489 5.8766 )
	( 3.14 0.0489 5.9343 )
	( 3.14 0.0489 5.9919 )
	( 3.14 0.0489 6.0495 )
	( 3.14 0.0489 6.1071 )
	( 3.14 0.0489 6.1647 )
	( 3.14 0.0489 6.2223 )
	( 3.14 0.0489 6.28 )
	( 3.14 0.0559 0.0 )
	( 3.14 0.0559 0.0576 )
	( 3.14 0.0559 0.1152 )
	( 3.14 0.0559 0.1728 )
	( 3.14 0.0559 0.2304 )
	( 3.14 0.0559 0.2880 )
	( 3.14 0.0559 0.3456 )
	( 3.14 0.0559 0.4033 )
	( 3.14 0.0559 0.4609 )
	( 3.14 0.0559 0.5185 )
	( 3.14 0.0559 0.5761 )
	( 3.14 0.0559 0.6337 )
	( 3.14 0.0559 0.6913 )
	( 3.14 0.0559 0.7489 )
	( 3.14 0.0559 0.8066 )
	( 3.14 0.0559 0.8642 )
	( 3.14 0.0559 0.9218 )
	( 3.14 0.0559 0.9794 )
	( 3.14 0.0559 1.0370 )
	( 3.14 0.0559 1.0946 )
	( 3.14 0.0559 1.1522 )
	( 3.14 0.0559 1.2099 )
	( 3.14 0.0559 1.2675 )
	( 3.14 0.0559 1.3251 )
	( 3.14 0.0559 1.3827 )
	( 3.14 0.0559 1.4403 )
	( 3.14 0.0559 1.4979 )
	( 3.14 0.0559 1.5555 )
	( 3.14 0.0559 1.6132 )
	( 3.14 0.0559 1.6708 )
	( 3.14 0.0559 1.7284 )
	( 3.14 0.0559 1.7860 )
	( 3.14 0.0559 1.8436 )
	( 3.14 0.0559 1.9012 )
	( 3.14 0.0559 1.9588 )
	( 3.14 0.0559 2.0165 )
	( 3.14 0.0559 2.0741 )
	( 3.14 0.0559 2.1317 )
	( 3.14 0.0559 2.1893 )
	( 3.14 0.0559 2.2469 )
	( 3.14 0.0559 2.3045 )
	( 3.14 0.0559 2.3622 )
	( 3.14 0.0559 2.4198 )
	( 3.14 0.0559 2.4774 )
	( 3.14 0.0559 2.5350 )
	( 3.14 0.0559 2.5926 )
	( 3.14 0.0559 2.6502 )
	( 3.14 0.0559 2.7078 )
	( 3.14 0.0559 2.7655 )
	( 3.14 0.0559 2.8231 )
	( 3.14 0.0559 2.8807 )
	( 3.14 0.0559 2.9383 )
	( 3.14 0.0559 2.9959 )
	( 3.14 0.0559 3.0535 )
	( 3.14 0.0559 3.1111 )
	( 3.14 0.0559 3.1688 )
	( 3.14 0.0559 3.2264 )
	( 3.14 0.0559 3.2840 )
	( 3.14 0.0559 3.3416 )
	( 3.14 0.0559 3.3992 )
	( 3.14 0.0559 3.4568 )
	( 3.14 0.0559 3.5144 )
	( 3.14 0.0559 3.5721 )
	( 3.14 0.0559 3.6297 )
	( 3.14 0.0559 3.6873 )
	( 3.14 0.0559 3.7449 )
	( 3.14 0.0559 3.8025 )
	( 3.14 0.0559 3.8601 )
	( 3.14 0.0559 3.9177 )
	( 3.14 0.0559 3.9754 )
	( 3.14 0.0559 4.0330 )
	( 3.14 0.0559 4.0906 )
	( 3.14 0.0559 4.1482 )
	( 3.14 0.0559 4.2058 )
	( 3.14 0.0559 4.2634 )
	( 3.14 0.0559 4.3211 )
	( 3.14 0.0559 4.3787 )
	( 3.14 0.0559 4.4363 )
	( 3.14 0.0559 4.4939 )
	( 3.14 0.0559 4.5515 )
	( 3.14 0.0559 4.6091 )
	( 3.14 0.0559 4.6667 )
	( 3.14 0.0559 4.7244 )
	( 3.14 0.0559 4.7820 )
	( 3.14 0.0559 4.8396 )
	( 3.14 0.0559 4.8972 )
	( 3.14 0.0559 4.9548 )
	( 3.14 0.0559 5.0124 )
	( 3.14 0.0559 5.0700 )
	( 3.14 0.0559 5.1277 )
	( 3.14 0.0559 5.1853 )
	( 3.14 0.0559 5.2429 )
	( 3.14 0.0559 5.3005 )
	( 3.14 0.0559 5.3581 )
	( 3.14 0.0559 5.4157 )
	( 3.14 0.0559 5.4733 )
	( 3.14 0.0559 5.5310 )
	( 3.14 0.0559 5.5886 )
	( 3.14 0.0559 5.6462 )
	( 3.14 0.0559 5.7038 )
	( 3.14 0.0559 5.7614 )
	( 3.14 0.0559 5.8190 )
	( 3.14 0.0559 5.8766 )
	( 3.14 0.0559 5.9343 )
	( 3.14 0.0559 5.9919 )
	( 3.14 0.0559 6.0495 )
	( 3.14 0.0559 6.1071 )
	( 3.14 0.0559 6.1647 )
	( 3.14 0.0559 6.2223 )
	( 3.14 0.0559 6.28 )
	( 3.14 0.0629 0.0 )
	( 3.14 0.0629 0.0576 )
	( 3.14 0.0629 0.1152 )
	( 3.14 0.0629 0.1728 )
	( 3.14 0.0629 0.2304 )
	( 3.14 0.0629 0.2880 )
	( 3.14 0.0629 0.3456 )
	( 3.14 0.0629 0.4033 )
	( 3.14 0.0629 0.4609 )
	( 3.14 0.0629 0.5185 )
	( 3.14 0.0629 0.5761 )
	( 3.14 0.0629 0.6337 )
	( 3.14 0.0629 0.6913 )
	( 3.14 0.0629 0.7489 )
	( 3.14 0.0629 0.8066 )
	( 3.14 0.0629 0.8642 )
	( 3.14 0.0629 0.9218 )
	( 3.14 0.0629 0.9794 )
	( 3.14 0.0629 1.0370 )
	( 3.14 0.0629 1.0946 )
	( 3.14 0.0629 1.1522 )
	( 3.14 0.0629 1.2099 )
	( 3.14 0.0629 1.2675 )
	( 3.14 0.0629 1.3251 )
	( 3.14 0.0629 1.3827 )
	( 3.14 0.0629 1.4403 )
	( 3.14 0.0629 1.4979 )
	( 3.14 0.0629 1.5555 )
	( 3.14 0.0629 1.6132 )
	( 3.14 0.0629 1.6708 )
	( 3.14 0.0629 1.7284 )
	( 3.14 0.0629 1.7860 )
	( 3.14 0.0629 1.8436 )
	( 3.14 0.0629 1.9012 )
	( 3.14 0.0629 1.9588 )
	( 3.14 0.0629 2.0165 )
	( 3.14 0.0629 2.0741 )
	( 3.14 0.0629 2.1317 )
	( 3.14 0.0629 2.1893 )
	( 3.14 0.0629 2.2469 )
	( 3.14 0.0629 2.3045 )
	( 3.14 0.0629 2.3622 )
	( 3.14 0.0629 2.4198 )
	( 3.14 0.0629 2.4774 )
	( 3.14 0.0629 2.5350 )
	( 3.14 0.0629 2.5926 )
	( 3.14 0.0629 2.6502 )
	( 3.14 0.0629 2.7078 )
	( 3.14 0.0629 2.7655 )
	( 3.14 0.0629 2.8231 )
	( 3.14 0.0629 2.8807 )
	( 3.14 0.0629 2.9383 )
	( 3.14 0.0629 2.9959 )
	( 3.14 0.0629 3.0535 )
	( 3.14 0.0629 3.1111 )
	( 3.14 0.0629 3.1688 )
	( 3.14 0.0629 3.2264 )
	( 3.14 0.0629 3.2840 )
	( 3.14 0.0629 3.3416 )
	( 3.14 0.0629 3.3992 )
	( 3.14 0.0629 3.4568 )
	( 3.14 0.0629 3.5144 )
	( 3.14 0.0629 3.5721 )
	( 3.14 0.0629 3.6297 )
	( 3.14 0.0629 3.6873 )
	( 3.14 0.0629 3.7449 )
	( 3.14 0.0629 3.8025 )
	( 3.14 0.0629 3.8601 )
	( 3.14 0.0629 3.9177 )
	( 3.14 0.0629 3.9754 )
	( 3.14 0.0629 4.0330 )
	( 3.14 0.0629 4.0906 )
	( 3.14 0.0629 4.1482 )
	( 3.14 0.0629 4.2058 )
	( 3.14 0.0629 4.2634 )
	( 3.14 0.0629 4.3211 )
	( 3.14 0.0629 4.3787 )
	( 3.14 0.0629 4.4363 )
	( 3.14 0.0629 4.4939 )
	( 3.14 0.0629 4.5515 )
	( 3.14 0.0629 4.6091 )
	( 3.14 0.0629 4.6667 )
	( 3.14 0.0629 4.7244 )
	( 3.14 0.0629 4.7820 )
	( 3.14 0.0629 4.8396 )
	( 3.14 0.0629 4.8972 )
	( 3.14 0.0629 4.9548 )
	( 3.14 0.0629 5.0124 )
	( 3.14 0.0629 5.0700 )
	( 3.14 0.0629 5.1277 )
	( 3.14 0.0629 5.1853 )
	( 3.14 0.0629 5.2429 )
	( 3.14 0.0629 5.3005 )
	( 3.14 0.0629 5.3581 )
	( 3.14 0.0629 5.4157 )
	( 3.14 0.0629 5.4733 )
	( 3.14 0.0629 5.5310 )
	( 3.14 0.0629 5.5886 )
	( 3.14 0.0629 5.6462 )
	( 3.14 0.0629 5.7038 )
	( 3.14 0.0629 5.7614 )
	( 3.14 0.0629 5.8190 )
	( 3.14 0.0629 5.8766 )
	( 3.14 0.0629 5.9343 )
	( 3.14 0.0629 5.9919 )
	( 3.14 0.0629 6.0495 )
	( 3.14 0.0629 6.1071 )
	( 3.14 0.0629 6.1647 )
	( 3.14 0.0629 6.2223 )
	( 3.14 0.0629 6.28 )
	( 3.14 0.0699 0.0 )
	( 3.14 0.0699 0.0576 )
	( 3.14 0.0699 0.1152 )
	( 3.14 0.0699 0.1728 )
	( 3.14 0.0699 0.2304 )
	( 3.14 0.0699 0.2880 )
	( 3.14 0.0699 0.3456 )
	( 3.14 0.0699 0.4033 )
	( 3.14 0.0699 0.4609 )
	( 3.14 0.0699 0.5185 )
	( 3.14 0.0699 0.5761 )
	( 3.14 0.0699 0.6337 )
	( 3.14 0.0699 0.6913 )
	( 3.14 0.0699 0.7489 )
	( 3.14 0.0699 0.8066 )
	( 3.14 0.0699 0.8642 )
	( 3.14 0.0699 0.9218 )
	( 3.14 0.0699 0.9794 )
	( 3.14 0.0699 1.0370 )
	( 3.14 0.0699 1.0946 )
	( 3.14 0.0699 1.1522 )
	( 3.14 0.0699 1.2099 )
	( 3.14 0.0699 1.2675 )
	( 3.14 0.0699 1.3251 )
	( 3.14 0.0699 1.3827 )
	( 3.14 0.0699 1.4403 )
	( 3.14 0.0699 1.4979 )
	( 3.14 0.0699 1.5555 )
	( 3.14 0.0699 1.6132 )
	( 3.14 0.0699 1.6708 )
	( 3.14 0.0699 1.7284 )
	( 3.14 0.0699 1.7860 )
	( 3.14 0.0699 1.8436 )
	( 3.14 0.0699 1.9012 )
	( 3.14 0.0699 1.9588 )
	( 3.14 0.0699 2.0165 )
	( 3.14 0.0699 2.0741 )
	( 3.14 0.0699 2.1317 )
	( 3.14 0.0699 2.1893 )
	( 3.14 0.0699 2.2469 )
	( 3.14 0.0699 2.3045 )
	( 3.14 0.0699 2.3622 )
	( 3.14 0.0699 2.4198 )
	( 3.14 0.0699 2.4774 )
	( 3.14 0.0699 2.5350 )
	( 3.14 0.0699 2.5926 )
	( 3.14 0.0699 2.6502 )
	( 3.14 0.0699 2.7078 )
	( 3.14 0.0699 2.7655 )
	( 3.14 0.0699 2.8231 )
	( 3.14 0.0699 2.8807 )
	( 3.14 0.0699 2.9383 )
	( 3.14 0.0699 2.9959 )
	( 3.14 0.0699 3.0535 )
	( 3.14 0.0699 3.1111 )
	( 3.14 0.0699 3.1688 )
	( 3.14 0.0699 3.2264 )
	( 3.14 0.0699 3.2840 )
	( 3.14 0.0699 3.3416 )
	( 3.14 0.0699 3.3992 )
	( 3.14 0.0699 3.4568 )
	( 3.14 0.0699 3.5144 )
	( 3.14 0.0699 3.5721 )
	( 3.14 0.0699 3.6297 )
	( 3.14 0.0699 3.6873 )
	( 3.14 0.0699 3.7449 )
	( 3.14 0.0699 3.8025 )
	( 3.14 0.0699 3.8601 )
	( 3.14 0.0699 3.9177 )
	( 3.14 0.0699 3.9754 )
	( 3.14 0.0699 4.0330 )
	( 3.14 0.0699 4.0906 )
	( 3.14 0.0699 4.1482 )
	( 3.14 0.0699 4.2058 )
	( 3.14 0.0699 4.2634 )
	( 3.14 0.0699 4.3211 )
	( 3.14 0.0699 4.3787 )
	( 3.14 0.0699 4.4363 )
	( 3.14 0.0699 4.4939 )
	( 3.14 0.0699 4.5515 )
	( 3.14 0.0699 4.6091 )
	( 3.14 0.0699 4.6667 )
	( 3.14 0.0699 4.7244 )
	( 3.14 0.0699 4.7820 )
	( 3.14 0.0699 4.8396 )
	( 3.14 0.0699 4.8972 )
	( 3.14 0.0699 4.9548 )
	( 3.14 0.0699 5.0124 )
	( 3.14 0.0699 5.0700 )
	( 3.14 0.0699 5.1277 )
	( 3.14 0.0699 5.1853 )
	( 3.14 0.0699 5.2429 )
	( 3.14 0.0699 5.3005 )
	( 3.14 0.0699 5.3581 )
	( 3.14 0.0699 5.4157 )
	( 3.14 0.0699 5.4733 )
	( 3.14 0.0699 5.5310 )
	( 3.14 0.0699 5.5886 )
	( 3.14 0.0699 5.6462 )
	( 3.14 0.0699 5.7038 )
	( 3.14 0.0699 5.7614 )
	( 3.14 0.0699 5.8190 )
	( 3.14 0.0699 5.8766 )
	( 3.14 0.0699 5.9343 )
	( 3.14 0.0699 5.9919 )
	( 3.14 0.0699 6.0495 )
	( 3.14 0.0699 6.1071 )
	( 3.14 0.0699 6.1647 )
	( 3.14 0.0699 6.2223 )
	( 3.14 0.0699 6.28 )
	( 3.14 0.0769 0.0 )
	( 3.14 0.0769 0.0576 )
	( 3.14 0.0769 0.1152 )
	( 3.14 0.0769 0.1728 )
	( 3.14 0.0769 0.2304 )
	( 3.14 0.0769 0.2880 )
	( 3.14 0.0769 0.3456 )
	( 3.14 0.0769 0.4033 )
	( 3.14 0.0769 0.4609 )
	( 3.14 0.0769 0.5185 )
	( 3.14 0.0769 0.5761 )
	( 3.14 0.0769 0.6337 )
	( 3.14 0.0769 0.6913 )
	( 3.14 0.0769 0.7489 )
	( 3.14 0.0769 0.8066 )
	( 3.14 0.0769 0.8642 )
	( 3.14 0.0769 0.9218 )
	( 3.14 0.0769 0.9794 )
	( 3.14 0.0769 1.0370 )